Version, 22.1;

Building,
building1, !- Name
0, !- North Axis {deg}
Suburbs , !- Terrain
0.04, !- Loads Convergence Tolerance Value
0.4000000, !- Temperature Convergence Tolerance Value {deltaC}
FullInteriorAndExterior , !- Solar Distribution
40, !- Maximum Number of Warmup Days
6; !- Minimum Number of Warmup Days

GlobalGeometryRules,
UpperLeftCorner,         !- Starting Vertex Position
ClockWise,              !- Vertex Entry Direction
Relative;                   !- Coordinate System